warn: The se.py script is deprecated. It will be removed in future releases of  gem5.
Global frequency set at 1000000000000 ticks per second
warn: No dot file generated. Please install pydot to generate the dot file and pdf.
src/mem/dram_interface.cc:692: warn: DRAM device capacity (8192 Mbytes) does not match the address range assigned (512 Mbytes)
src/arch/riscv/isa.cc:276: info: RVV enabled, VLEN = 256 bits, ELEN = 64 bits
src/arch/riscv/linux/se_workload.cc:60: warn: Unknown operating system; assuming Linux.
src/base/statistics.hh:279: warn: One of the stats is a legacy stat. Legacy stat is a stat that does not belong to any statistics::Group. Legacy stat is deprecated.
system.remote_gdb: Listening for connections on port 7000
gem5 Simulator System.  https://www.gem5.org
gem5 is copyrighted software; use the --copyright option for details.

gem5 version 23.1.0.0
gem5 compiled May 15 2024 23:40:27
gem5 started Apr  1 2025 17:11:45
gem5 executing on ip149-165.wlan.ntust.edu.tw, pid 65625
command line: ../build/RISCV/gem5.opt ../configs/deprecated/example/se.py --caches --l1i_size=8kB --l1i_assoc=2 --l1d_size=8kB --l1d_assoc=2 --cacheline_size=16 -c ./main

**** REAL SIMULATION ****
src/sim/simulate.cc:199: info: Entering event queue @ 0.  Starting simulation...
Exiting @ tick 1300383000 because exiting with last active thread context
